12
XYZ
C             0.000000000     1.398025490     0.000000000
H             0.000000000     2.506077230     0.000000000
C            -1.210890700     0.699067510     0.000000000
H            -2.170426030     1.253117140     0.000000000
C            -1.210890700    -0.699067510     0.000000000
H            -2.170426030    -1.253117140     0.000000000
C            -0.000000000    -1.398025500     0.000000000
H            -0.000000000    -2.506077230     0.000000000
C             1.210890700    -0.699067510     0.000000000
H             2.170426030    -1.253117140     0.000000000
C             1.210890700     0.699067510     0.000000000
H             2.170426030     1.253117140     0.000000000
