45
XYZ
C             0.000000000    -5.760000000     0.000000000
C            -1.247076581    -5.040000000     0.000000000
C            -1.247076581    -3.600000000     0.000000000
C             1.247076581    -5.040000000     0.000000000
C             1.247076581    -3.600000000     0.000000000
C            -2.494153163    -2.880000000     0.000000000
C            -2.494153163    -1.440000000     0.000000000
C             0.000000000    -2.880000000     0.000000000
C             0.000000000    -1.440000000     0.000000000
C             2.494153163    -2.880000000     0.000000000
C             2.494153163    -1.440000000     0.000000000
C            -3.741229744    -0.720000000     0.000000000
C            -3.741229744     0.720000000     0.000000000
C            -1.247076581    -0.720000000     0.000000000
C            -1.247076581     0.720000000     0.000000000
C             1.247076581    -0.720000000     0.000000000
C             1.247076581     0.720000000     0.000000000
C             3.741229744    -0.720000000     0.000000000
C             3.741229744     0.720000000     0.000000000
C            -4.988306326     1.440000000     0.000000000
C            -4.988306326     2.880000000     0.000000000
C            -2.494153163     1.440000000     0.000000000
C            -2.494153163     2.880000000     0.000000000
C             0.000000000     1.440000000     0.000000000
C             2.494153163     1.440000000     0.000000000
C             2.494153163     2.880000000     0.000000000
C             4.988306326     1.440000000     0.000000000
C             4.988306326     2.880000000     0.000000000
C            -6.235382907     3.600000000     0.000000000
C            -6.235382907     5.040000000     0.000000000
C            -4.988306326     5.760000000     0.000000000
C            -3.741229744     3.600000000     0.000000000
C            -3.741229744     5.040000000     0.000000000
C            -2.494153163     5.760000000     0.000000000
C            -1.247076581     3.600000000     0.000000000
C            -1.247076581     5.040000000     0.000000000
C            -0.000000000     5.760000000     0.000000000
C             1.247076581     3.600000000     0.000000000
C             1.247076581     5.040000000     0.000000000
C             2.494153163     5.760000000     0.000000000
C             3.741229744     3.600000000     0.000000000
C             3.741229744     5.040000000     0.000000000
C             4.988306326     5.760000000     0.000000000
C             6.235382907     3.600000000     0.000000000
C             6.235382907     5.040000000     0.000000000
